OPT_V10/Two_days_MCY3_MIQCPM1/powerflow_results_t43.txt
Pandapower Network Debug Info
==================================================

BUS:
       vm_pu  va_degree      p_mw    q_mvar
0   0.993100   0.110679  0.001062  0.001189
1   0.988963   0.202395  0.001362  0.001837
2   0.985197   0.302533  0.001637  0.003159
3   0.989359   0.151842  0.002934  0.003345
4   0.999888   0.000979  0.011218  0.010582
5   0.999875   0.001078  0.009253  0.010057
6   0.999866   0.001140  0.010731  0.010549
7   0.999931   0.000675  0.000000  0.000000
8   0.999930   0.000681  0.000000  0.000000
9   1.000000   0.000000 -0.038335 -0.045810
10  1.000000   0.000006  0.000000  0.000000
--------------------------------------------------

LINE:
   p_from_mw  q_from_mvar   p_to_mw  q_to_mvar         pl_mw       ql_mvar  i_from_ka   i_to_ka      i_ka  vm_from_pu  va_from_degree  vm_to_pu  va_to_degree  loading_percent
0   0.038325     0.041810 -0.038322  -0.041808  3.146567e-06  2.453430e-06   0.002183  0.002183  0.002183    1.000000        0.000006  0.999931      0.000675         0.949161
1   0.031204     0.031190 -0.031202  -0.031189  1.505389e-06  1.173776e-06   0.001698  0.001698  0.001698    0.999931        0.000675  0.999888      0.000979         0.738373
2   0.007108     0.009618 -0.007041  -0.009566  6.690976e-05  5.217064e-05   0.017264  0.017264  0.017264    0.999930        0.000681  0.993100      0.110679         7.505905
3  -0.019983    -0.020607  0.019984   0.020607  2.850205e-07  2.222352e-07   0.001105  0.001105  0.001105    0.999875        0.001078  0.999888      0.000979         0.480432
4  -0.010731    -0.010549  0.010731   0.010550  1.107720e-07  8.637076e-08   0.000579  0.000579  0.000579    0.999866        0.001140  0.999875      0.001078         0.251855
5  -0.003011    -0.005005  0.003031   0.005021  2.063377e-05  1.608849e-05   0.008524  0.008524  0.008524    0.988963        0.202395  0.993100      0.110679         3.706104
6  -0.002934    -0.003345  0.002948   0.003356  1.350735e-05  1.053190e-05   0.006492  0.006492  0.006492    0.989359        0.151842  0.993100      0.110679         2.822610
7  -0.001637    -0.003159  0.001649   0.003168  1.179784e-05  9.198974e-06   0.005213  0.005213  0.005213    0.985197        0.302533  0.988963      0.202395         2.266345
--------------------------------------------------

TRAFO:
    p_hv_mw  q_hv_mvar   p_lv_mw  q_lv_mvar    pl_mw  ql_mvar   i_hv_ka   i_lv_ka  vm_hv_pu  va_hv_degree  vm_lv_pu  va_lv_degree  loading_percent
0  0.007118   0.010618 -0.007108  -0.009618  0.00001    0.001  0.000492  0.017264  0.999931      0.000675   0.99993      0.000681         0.127841
1  0.038335   0.045810 -0.038325  -0.041810  0.00001    0.004  0.000493  0.002183  1.000000      0.000000   1.00000      0.000006         0.149335
--------------------------------------------------
